peak_load_80pc.csv
Bus,  V1,  p.u.,Base kV, V2, %V2/V1, V0, %V0/V1, Vresidual, %NEMA
"PPU_DUMA_33KV",    18922.5,   0.99317,    33.00, 9.25744E-006, 4.892E-008, 1.23939E-006, 6.55E-009, 3.71815E-006, 6.552E-009
"PPU_DUMA_11KV",    6376.89,    0.9746,    11.33, 3.31406E-006, 5.197E-008, 1.24066E-008, 1.946E-010, 3.72223E-008, 6.68E-009
"RPPLNGI2",    6347.36,   0.97008,    11.33, 3.30073E-006, 5.2E-008, 1.29432E-008, 2.039E-010, 3.88316E-008, 6.712E-009
"PDTJLNMASJID",    6325.18,   0.96669,    11.33, 3.29072E-006, 5.203E-008, 1.3468E-008, 2.129E-010, 4.04063E-008, 6.736E-009
"BELLA",    6310.38,   0.96443,    11.33, 3.28404E-006, 5.204E-008, 1.38714E-008, 2.198E-010, 4.16167E-008, 6.752E-009
"PSTPDGN",    6302.97,    0.9633,    11.33, 3.2807E-006, 5.205E-008, 1.40876E-008, 2.235E-010, 4.22652E-008, 6.76E-009
"PAMDRA",    6375.85,   0.97444,    11.33, 3.3136E-006, 5.197E-008, 1.24068E-008, 1.946E-010, 3.72219E-008, 6.681E-009
"DUMA4",    6371.97,   0.97384,    11.33, 3.31185E-006, 5.198E-008, 1.2692E-008, 1.992E-010, 3.80782E-008, 6.685E-009
"PLSDRA",    6361.15,   0.97219,    11.33, 3.30698E-006, 5.199E-008, 1.72214E-008, 2.707E-010, 5.16672E-008, 6.697E-009
"SSU_UPTWRES_IR1",    6356.57,   0.97149,    11.33, 3.30492E-006, 5.199E-008, 1.74457E-008, 2.745E-010, 5.23391E-008, 6.702E-009
"ATRIA_1",    6355.92,   0.97139,    11.33, 3.30459E-006, 5.199E-008, 1.26175E-008, 1.985E-010, 3.78547E-008, 6.702E-009
"HAWKER",    6351.39,    0.9707,    11.33, 3.30255E-006, 5.2E-008, 1.34748E-008, 2.122E-010, 4.04266E-008, 6.707E-009
"PRMTE",    6330.58,   0.96752,    11.33, 3.29328E-006, 5.202E-008, 3.28667E-008, 5.192E-010, 9.86023E-008, 6.732E-009
"PRMTA",    6323.96,   0.96651,    11.33, 3.29031E-006, 5.203E-008, 3.32329E-008, 5.255E-010, 9.97009E-008, 6.739E-009
"PMONTB",    6321.31,    0.9661,    11.33, 3.28913E-006, 5.203E-008, 3.50558E-008, 5.546E-010, 1.05169E-007, 6.742E-009
"DUMA7",    6371.39,   0.97376,    11.33, 3.31158E-006, 5.198E-008, 1.24478E-008, 1.954E-010, 3.7345E-008, 6.686E-009
"HAUS",    6368.43,    0.9733,    11.33, 3.31025E-006, 5.198E-008, 1.1719E-008, 1.84E-010, 3.51592E-008, 6.689E-009
"DUMA6",    6365.98,   0.97293,    11.33, 3.30916E-006, 5.198E-008, 9.62112E-009, 1.511E-010, 2.88661E-008, 6.692E-009
"DUMA13",    6374.16,   0.97418,    11.33, 3.31287E-006, 5.197E-008, 2.48172E-009, 3.893E-011, 7.4479E-009, 6.684E-009
"SSU_DUMA5_IM2",    6375.84,   0.97444,    11.33, 3.31363E-006, 5.197E-008, 2.36006E-009, 3.702E-011, 7.08255E-009, 6.682E-009
"PLNGI_B",    6374.27,    0.9742,    11.33, 3.31288E-006, 5.197E-008, 1.23494E-008, 1.937E-010, 3.70507E-008, 6.683E-009
"PLNGI_D",    6375.32,   0.97436,    11.33, 3.31336E-006, 5.197E-008, 1.22665E-008, 1.924E-010, 3.68013E-008, 6.682E-009
"PDTLITRAK",    6343.56,    0.9695,    11.33, 3.29904E-006, 5.201E-008, 1.27157E-008, 2.005E-010, 3.81494E-008, 6.716E-009
"DUMA12",    6330.02,   0.96743,    11.33, 3.29293E-006, 5.202E-008, 1.29201E-008, 2.041E-010, 3.87624E-008, 6.731E-009
"TMNGH4",    6320.54,   0.96598,    11.33, 3.28867E-006, 5.203E-008, 1.60297E-008, 2.536E-010, 4.80914E-008, 6.742E-009
"SSU_TMEGAH3_IR1",    6316.55,   0.96537,    11.33, 3.28687E-006, 5.204E-008, 1.81836E-008, 2.879E-010, 5.4553E-008, 6.746E-009
"TMNGH2",    6313.91,   0.96497,    11.33, 3.28569E-006, 5.204E-008, 1.9825E-008, 3.14E-010, 5.94776E-008, 6.749E-009
"SPRK9",    6298.72,   0.96265,    11.33, 3.27882E-006, 5.206E-008, 1.43059E-008, 2.271E-010, 4.29199E-008, 6.765E-009
"BOMBA",    6295.32,   0.96213,    11.33, 3.27729E-006, 5.206E-008, 1.55859E-008, 2.476E-010, 4.67601E-008, 6.769E-009
"SPRK8",    6286.83,   0.96083,    11.33, 3.27347E-006, 5.207E-008, 1.99383E-008, 3.171E-010, 5.98174E-008, 6.779E-009
"SSU_UPTWRES_IM2",     6366.3,   0.97298,    11.33, 3.30929E-006, 5.198E-008, 1.45095E-008, 2.279E-010, 4.35314E-008, 6.691E-009
"MAYBANK",     6361.9,   0.97231,    11.33, 3.30731E-006, 5.199E-008, 1.46012E-008, 2.295E-010, 4.38063E-008, 6.696E-009
"DUMA8",    6361.31,   0.97222,    11.33, 3.30704E-006, 5.199E-008, 1.47401E-008, 2.317E-010, 4.42223E-008, 6.697E-009
"SSU_DSARCNTR_IR1",    6376.74,   0.97457,    11.33, 3.314E-006, 5.197E-008, 1.23512E-008, 1.937E-010, 3.70558E-008, 6.68E-009
"DUMA9",    6338.98,    0.9688,    11.33, 3.29695E-006, 5.201E-008, 1.3031E-008, 2.056E-010, 3.90959E-008, 6.721E-009
"DUMA1",    6323.58,   0.96645,    11.33,  3.29E-006, 5.203E-008, 1.33739E-008, 2.115E-010, 4.01241E-008, 6.738E-009
"ELITE",    6318.08,   0.96561,    11.33, 3.28752E-006, 5.203E-008, 1.35077E-008, 2.138E-010, 4.05254E-008, 6.744E-009
"DUMA10",    6363.78,   0.97259,    11.33, 3.30814E-006, 5.198E-008, 1.2467E-008, 1.959E-010, 3.74035E-008, 6.694E-009
"BALAIPOLIS",    6363.65,   0.97257,    11.33, 3.30808E-006, 5.198E-008, 1.24683E-008, 1.959E-010, 3.74069E-008, 6.694E-009
"SSU_DUMA5_M11KV",          0,         0,    33.00,          0,        0,          0,        0,          0,        0
